real-data-new/processed_file/test_cases_v36_bus_voltages.csv
bus,name,base_kv,voltage_pu
40,REGTRM1,0.6899999976158142,1.0453766584396362
41,REGTRM2,0.6899999976158142,1.0453766584396362
50,REGLVB1,0.6899999976158142,1.0451654195785522
51,REGLVB2,0.6899999976158142,1.0451654195785522
100,BUSREG1,35.0,1.0273301601409912
101,BUREG2,35.0,1.0273301601409912
200,BUSSVG1,35.0,1.0616588592529297
201,BUSSVG2,35.0,1.0616588592529297
700,BUSPOC,230.0,1.0263367891311646
800,DUMBUS,230.0,1.025728464126587
900,SYSTEM,230.0,1.0
